Version 4
SHEET 1 1812 680
WIRE 1264 -272 1264 -304
WIRE 1536 -272 1264 -272
WIRE 1536 -240 1536 -272
WIRE 1264 -192 1264 -272
WIRE 1472 -192 1408 -192
WIRE 336 -112 304 -112
WIRE 464 -112 416 -112
WIRE 544 -112 464 -112
WIRE 672 -112 624 -112
WIRE 864 -112 800 -112
WIRE 992 -112 944 -112
WIRE 1536 -112 1536 -144
WIRE 304 -80 304 -112
WIRE 1264 -80 1264 -112
WIRE 1296 -80 1264 -80
WIRE 1408 -80 1408 -192
WIRE 1408 -80 1376 -80
WIRE 1264 -48 1264 -80
WIRE 464 -32 464 -112
WIRE 496 -32 464 -32
WIRE 1536 -32 1536 -48
WIRE 672 -16 672 -112
WIRE 672 -16 560 -16
WIRE 704 -16 672 -16
WIRE 800 -16 800 -112
WIRE 800 -16 784 -16
WIRE 832 -16 800 -16
WIRE 112 0 64 0
WIRE 240 0 192 0
WIRE 384 0 304 0
WIRE 464 0 384 0
WIRE 496 0 464 0
WIRE 992 0 992 -112
WIRE 992 0 896 0
WIRE 1024 0 992 0
WIRE 1120 0 1104 0
WIRE 1200 0 1184 0
WIRE 832 16 800 16
WIRE 64 32 64 0
WIRE 384 32 384 0
WIRE 464 32 464 0
WIRE 1264 96 1264 48
WIRE 1536 96 1536 48
WIRE 1536 96 1264 96
WIRE 1264 128 1264 96
WIRE -224 144 -224 112
WIRE -224 144 -368 144
WIRE -128 144 -128 112
WIRE -128 144 -224 144
WIRE 64 144 64 112
WIRE 64 144 -128 144
WIRE 384 144 384 96
WIRE 464 144 464 112
WIRE 464 144 384 144
WIRE 640 144 592 144
WIRE 800 144 800 16
WIRE 800 144 720 144
WIRE 880 144 800 144
WIRE 1024 144 960 144
WIRE 464 176 464 144
WIRE -368 192 -368 144
WIRE -224 192 -224 144
WIRE -128 192 -128 144
FLAG -368 192 0
FLAG -128 32 +12
FLAG -128 272 -12
FLAG 304 -80 0
FLAG 528 -48 +12
FLAG 528 16 -12
FLAG 464 176 0
FLAG 864 32 +12
FLAG 864 -32 -12
FLAG 1264 128 0
FLAG -224 32 +9V
FLAG 1264 -304 +9V
FLAG -224 272 -9V
FLAG 592 144 +9V
FLAG 1024 144 -9V
SYMBOL voltage -128 16 R0
WINDOW 123 0 0 Left 0
WINDOW 39 0 0 Left 0
SYMATTR InstName V1
SYMATTR Value 12
SYMBOL voltage -128 176 R0
WINDOW 123 0 0 Left 0
WINDOW 39 0 0 Left 0
SYMATTR InstName V2
SYMATTR Value 12
SYMBOL res 432 -128 R90
WINDOW 0 0 56 VBottom 2
WINDOW 3 32 56 VTop 2
SYMATTR InstName R1
SYMATTR Value 2K
SYMBOL res 640 -128 R90
WINDOW 0 0 56 VBottom 2
WINDOW 3 32 56 VTop 2
SYMATTR InstName R2
SYMATTR Value 100K
SYMBOL voltage 64 16 R0
WINDOW 3 -131 149 Left 2
WINDOW 123 -85 55 Left 2
WINDOW 39 -64 145 Left 2
WINDOW 0 -84 26 Left 2
SYMATTR Value SINE(0 .5e-1 14 0 0 0)
SYMATTR Value2 AC 1
SYMATTR InstName V3
SYMBOL res 480 128 R180
WINDOW 0 -32 62 Left 2
WINDOW 3 -60 36 Left 2
SYMATTR InstName R4
SYMATTR Value 100K
SYMBOL cap 304 -16 R90
WINDOW 0 0 32 VBottom 2
WINDOW 3 32 32 VTop 2
SYMATTR InstName C1
SYMATTR Value 100e-9
SYMBOL res 208 -16 R90
WINDOW 0 0 56 VBottom 2
WINDOW 3 32 56 VTop 2
SYMATTR InstName R5
SYMATTR Value 10K
SYMBOL cap 368 32 R0
WINDOW 0 -41 39 Left 2
WINDOW 3 -61 60 Left 2
SYMATTR InstName C2
SYMATTR Value 1e-9
SYMBOL res 800 -32 R90
WINDOW 0 0 56 VBottom 2
WINDOW 3 32 56 VTop 2
SYMATTR InstName R3
SYMATTR Value 10K
SYMBOL res 960 -128 R90
WINDOW 0 0 56 VBottom 2
WINDOW 3 32 48 VTop 2
SYMATTR InstName R6
SYMATTR Value 200K
SYMBOL OpAmps\\LT1356 864 64 M180
SYMATTR InstName U3
SYMBOL res 1120 -16 R90
WINDOW 0 0 56 VBottom 2
WINDOW 3 32 56 VTop 2
SYMATTR InstName R7
SYMATTR Value 68K
SYMBOL diode 1120 16 R270
WINDOW 0 32 32 VTop 2
WINDOW 3 0 32 VBottom 2
SYMATTR InstName D1
SYMBOL npn 1200 -48 R0
SYMATTR InstName Q1
SYMBOL res 1280 -96 R180
WINDOW 0 36 76 Left 2
WINDOW 3 36 40 Left 2
SYMATTR InstName R8
SYMATTR Value 2K
SYMBOL OpAmps\\LT1356 528 -80 R0
SYMATTR InstName U2
SYMBOL voltage -224 16 R0
WINDOW 123 0 0 Left 0
WINDOW 39 0 0 Left 0
SYMATTR InstName V4
SYMATTR Value 9
SYMBOL res 1392 -96 R90
WINDOW 0 0 56 VBottom 2
WINDOW 3 32 56 VTop 2
SYMATTR InstName R9
SYMATTR Value 68K
SYMBOL res 1552 64 R180
WINDOW 0 36 76 Left 2
WINDOW 3 36 40 Left 2
SYMATTR InstName R10
SYMATTR Value 1K
SYMBOL LED 1520 -112 R0
SYMATTR InstName D2
SYMBOL res 736 128 R90
WINDOW 0 0 56 VBottom 2
WINDOW 3 32 56 VTop 2
SYMATTR InstName R14
SYMATTR Value 91K
SYMBOL res 976 128 R90
WINDOW 0 0 56 VBottom 2
WINDOW 3 32 56 VTop 2
SYMATTR InstName R15
SYMATTR Value 100K
SYMBOL pnp 1472 -144 M180
SYMATTR InstName Q2
SYMBOL voltage -224 176 R0
WINDOW 123 0 0 Left 0
WINDOW 39 0 0 Left 0
SYMATTR InstName V5
SYMATTR Value 9
TEXT -56 360 Left 2 !;.tran 0 300e-3 0 25e-3
TEXT -56 320 Left 2 !.ac oct 50 5 30e3
TEXT 624 224 Left 2 ;Positive bias insures LED doesn't light\nwhen no signal is present
