Version 4
SHEET 1 1812 680
WIRE 640 -304 592 -304
WIRE 816 -304 720 -304
WIRE 880 -304 816 -304
WIRE 1024 -304 960 -304
WIRE 1264 -288 1264 -320
WIRE 1536 -288 1264 -288
WIRE 1536 -256 1536 -288
WIRE 1264 -208 1264 -288
WIRE 1472 -208 1408 -208
WIRE 816 -176 816 -304
WIRE 848 -176 816 -176
WIRE 336 -160 304 -160
WIRE 464 -160 416 -160
WIRE 544 -160 464 -160
WIRE 656 -160 624 -160
WIRE 1008 -160 912 -160
WIRE 848 -144 816 -144
WIRE 304 -128 304 -160
WIRE 1536 -128 1536 -160
WIRE 384 -96 192 -96
WIRE 1264 -96 1264 -128
WIRE 1296 -96 1264 -96
WIRE 1408 -96 1408 -208
WIRE 1408 -96 1376 -96
WIRE 1264 -64 1264 -96
WIRE 1536 -48 1536 -64
WIRE 464 -32 464 -160
WIRE 496 -32 464 -32
WIRE 656 -16 656 -160
WIRE 656 -16 560 -16
WIRE 688 -16 656 -16
WIRE 816 -16 816 -144
WIRE 816 -16 768 -16
WIRE 880 -16 816 -16
WIRE 1008 -16 1008 -160
WIRE 1008 -16 960 -16
WIRE 1024 -16 1008 -16
WIRE 1120 -16 1104 -16
WIRE 1200 -16 1184 -16
WIRE 112 0 64 0
WIRE 240 0 192 0
WIRE 384 0 384 -96
WIRE 384 0 304 0
WIRE 464 0 384 0
WIRE 496 0 464 0
WIRE -96 32 -96 -96
WIRE 64 32 64 0
WIRE 384 32 384 0
WIRE 464 32 464 0
WIRE 1264 80 1264 32
WIRE 1536 80 1536 32
WIRE 1536 80 1264 80
WIRE 1264 112 1264 80
WIRE -320 144 -320 112
WIRE -320 144 -368 144
WIRE -224 144 -224 112
WIRE -224 144 -320 144
WIRE -96 144 -96 112
WIRE -96 144 -224 144
WIRE 64 144 64 112
WIRE 64 144 -96 144
WIRE 384 144 384 96
WIRE 464 144 464 112
WIRE 464 144 384 144
WIRE 464 176 464 144
WIRE -368 192 -368 144
WIRE -320 192 -320 144
WIRE -224 192 -224 144
FLAG -368 192 0
FLAG -224 32 +12
FLAG -224 272 -12
FLAG 304 -128 0
FLAG 528 -48 +12
FLAG 528 16 -12
FLAG 464 176 0
FLAG 880 -192 +12
FLAG 880 -128 -12
FLAG 1264 112 0
FLAG -320 32 +9V
FLAG 1264 -320 +9V
FLAG -320 272 -9V
FLAG 592 -304 +9V
FLAG 1024 -304 -9V
SYMBOL voltage -224 16 R0
WINDOW 123 0 0 Left 0
WINDOW 39 0 0 Left 0
SYMATTR InstName V1
SYMATTR Value 12
SYMBOL voltage -224 176 R0
WINDOW 123 0 0 Left 0
WINDOW 39 0 0 Left 0
SYMATTR InstName V2
SYMATTR Value 12
SYMBOL res 432 -176 R90
WINDOW 0 0 56 VBottom 2
WINDOW 3 32 56 VTop 2
SYMATTR InstName R1
SYMATTR Value 2K
SYMBOL res 640 -176 R90
WINDOW 0 0 56 VBottom 2
WINDOW 3 32 56 VTop 2
SYMATTR InstName R2
SYMATTR Value 100K
SYMBOL voltage 64 16 R0
WINDOW 3 -131 149 Left 2
WINDOW 123 -85 55 Left 2
WINDOW 39 -64 145 Left 2
WINDOW 0 -84 26 Left 2
SYMATTR Value PULSE(0 .05 0 1e-6 1e-6 50e-6 100e-6)
SYMATTR Value2 AC 1
SYMATTR InstName V3
SYMBOL res 480 128 R180
WINDOW 0 -32 62 Left 2
WINDOW 3 -60 36 Left 2
SYMATTR InstName R4
SYMATTR Value 100K
SYMBOL cap 304 -16 R90
WINDOW 0 0 32 VBottom 2
WINDOW 3 32 32 VTop 2
SYMATTR InstName C1
SYMATTR Value 220nF
SYMBOL res 208 -16 R90
WINDOW 0 0 56 VBottom 2
WINDOW 3 32 56 VTop 2
SYMATTR InstName R5
SYMATTR Value 10K
SYMBOL cap 368 32 R0
WINDOW 0 -41 39 Left 2
WINDOW 3 -61 60 Left 2
SYMATTR InstName C2
SYMATTR Value 330pF
SYMBOL res 784 -32 R90
WINDOW 0 0 56 VBottom 2
WINDOW 3 32 56 VTop 2
SYMATTR InstName R3
SYMATTR Value 5.1K
SYMBOL res 976 -32 R90
WINDOW 0 0 56 VBottom 2
WINDOW 3 32 48 VTop 2
SYMATTR InstName R6
SYMATTR Value 200K
SYMBOL OpAmps\\LT1356 -240 -304 R0
SYMATTR InstName U3
SYMBOL res 1120 -32 R90
WINDOW 0 0 56 VBottom 2
WINDOW 3 32 56 VTop 2
SYMATTR InstName R7
SYMATTR Value 68K
SYMBOL diode 1120 0 R270
WINDOW 0 32 32 VTop 2
WINDOW 3 0 32 VBottom 2
SYMATTR InstName D1
SYMBOL npn 1200 -64 R0
SYMATTR InstName Q1
SYMBOL res 1280 -112 R180
WINDOW 0 36 76 Left 2
WINDOW 3 36 40 Left 2
SYMATTR InstName R8
SYMATTR Value 2K
SYMBOL voltage -320 16 R0
WINDOW 123 0 0 Left 0
WINDOW 39 0 0 Left 0
SYMATTR InstName V4
SYMATTR Value 9
SYMBOL res 1392 -112 R90
WINDOW 0 0 56 VBottom 2
WINDOW 3 32 56 VTop 2
SYMATTR InstName R9
SYMATTR Value 68K
SYMBOL res 1552 48 R180
WINDOW 0 36 76 Left 2
WINDOW 3 36 40 Left 2
SYMATTR InstName R10
SYMATTR Value 1K
SYMBOL LED 1520 -128 R0
SYMATTR InstName D2
SYMBOL res 736 -320 R90
WINDOW 0 0 56 VBottom 2
WINDOW 3 32 56 VTop 2
SYMATTR InstName R14
SYMATTR Value 8.87K
SYMBOL res 976 -320 R90
WINDOW 0 0 56 VBottom 2
WINDOW 3 32 56 VTop 2
SYMATTR InstName R15
SYMATTR Value 10.0K
SYMBOL pnp 1472 -160 M180
SYMATTR InstName Q2
SYMBOL voltage -320 176 R0
WINDOW 123 0 0 Left 0
WINDOW 39 0 0 Left 0
SYMATTR InstName V5
SYMATTR Value 9
SYMBOL voltage -96 16 R0
WINDOW 123 0 0 Left 0
WINDOW 39 24 124 Left 2
SYMATTR InstName V6
SYMATTR Value .01
SYMBOL res 208 -112 R90
WINDOW 0 0 56 VBottom 2
WINDOW 3 32 56 VTop 2
SYMATTR InstName R11
SYMATTR Value 100K
SYMBOL OpAmps\\OP27 528 -80 R0
SYMATTR InstName U1
SYMBOL OpAmps\\OP27 880 -224 R0
SYMATTR InstName U2
TEXT -56 360 Left 2 !;tran 0 200e-6 0
TEXT -56 320 Left 2 !.ac oct 20 1 2e5
TEXT 624 224 Left 2 ;Positive bias insures LED doesn't light\nwhen no signal is present
