Version 4
SHEET 1 1348 680
WIRE 944 -128 896 -128
WIRE 1056 -128 1008 -128
WIRE 1200 -128 1056 -128
WIRE 448 -112 400 -112
WIRE 560 -112 512 -112
WIRE 720 -112 560 -112
WIRE 1056 -48 1056 -128
WIRE 1088 -48 1056 -48
WIRE 560 -32 560 -112
WIRE 592 -32 560 -32
WIRE 1200 -32 1200 -128
WIRE 1200 -32 1152 -32
WIRE 720 -16 720 -112
WIRE 720 -16 656 -16
WIRE 768 -16 720 -16
WIRE 896 -16 896 -128
WIRE 896 -16 848 -16
WIRE 944 -16 896 -16
WIRE 1056 -16 1024 -16
WIRE 1088 -16 1056 -16
WIRE 272 0 192 0
WIRE 400 0 400 -112
WIRE 400 0 352 0
WIRE 448 0 400 0
WIRE 560 0 528 0
WIRE 592 0 560 0
WIRE 192 32 192 0
WIRE 1056 32 1056 -16
WIRE 560 48 560 0
WIRE 1056 128 1056 96
WIRE 0 144 0 112
WIRE 0 144 -96 144
WIRE 192 144 192 112
WIRE 192 144 0 144
WIRE 560 144 560 112
WIRE -96 176 -96 144
WIRE 0 192 0 144
FLAG -96 176 0
FLAG 0 32 +12
FLAG 0 272 -12
FLAG 560 144 0
FLAG 624 -48 +12
FLAG 624 16 -12
FLAG 1056 128 0
FLAG 1120 -64 +12
FLAG 1120 0 -12
SYMBOL voltage 0 16 R0
WINDOW 123 0 0 Left 0
WINDOW 39 0 0 Left 0
SYMATTR InstName V1
SYMATTR Value 11.5
SYMBOL voltage 0 176 R0
WINDOW 123 0 0 Left 0
WINDOW 39 0 0 Left 0
SYMATTR InstName V2
SYMATTR Value 11.6
SYMBOL res 368 -16 R90
WINDOW 0 0 56 VBottom 2
WINDOW 3 32 56 VTop 2
SYMATTR InstName R1
SYMATTR Value 7.87K
SYMBOL voltage 192 16 R0
WINDOW 3 -61 216 Left 2
WINDOW 123 -64 173 Left 2
WINDOW 39 -64 145 Left 2
SYMATTR Value SINE(2.0 1.5 .1 0.00001 0.00001 .1 .3)
SYMATTR Value2 AC 1
SYMATTR SpiceLine Rser=0
SYMATTR InstName V3
SYMBOL cap 512 -128 R90
WINDOW 0 0 32 VBottom 2
WINDOW 3 32 32 VTop 2
SYMATTR InstName C1
SYMATTR Value 2.7nF
SYMBOL OpAmps\\LT1354 624 -80 R0
SYMATTR InstName U2
SYMBOL res 544 -16 R90
WINDOW 0 0 56 VBottom 2
WINDOW 3 32 56 VTop 2
SYMATTR InstName R3
SYMATTR Value 16.5K
SYMBOL cap 544 48 R0
SYMATTR InstName C2
SYMATTR Value 2nF
SYMBOL res 864 -32 R90
WINDOW 0 0 56 VBottom 2
WINDOW 3 32 56 VTop 2
SYMATTR InstName R4
SYMATTR Value 16.5K
SYMBOL cap 1008 -144 R90
WINDOW 0 0 32 VBottom 2
WINDOW 3 32 32 VTop 2
SYMATTR InstName C3
SYMATTR Value 2.7nF
SYMBOL OpAmps\\LT1354 1120 -96 R0
SYMATTR InstName U1
SYMBOL res 1040 -32 R90
WINDOW 0 0 56 VBottom 2
WINDOW 3 32 56 VTop 2
SYMATTR InstName R5
SYMATTR Value 59K
SYMBOL cap 1040 32 R0
SYMATTR InstName C4
SYMATTR Value 270pF
TEXT -120 360 Left 2 !;tran 0 1 0 .1
TEXT 184 264 Left 2 !.ac dec 50 100 250e3
