Version 4
SHEET 1 1456 680
WIRE 576 -224 576 -256
WIRE 144 -208 96 -208
WIRE 272 -208 224 -208
WIRE 304 -208 272 -208
WIRE 384 -208 368 -208
WIRE 480 -208 448 -208
WIRE 96 -176 96 -208
WIRE 576 -112 576 -144
WIRE 656 -112 576 -112
WIRE 704 -112 656 -112
WIRE 832 -96 768 -96
WIRE 944 -96 912 -96
WIRE 576 -80 576 -112
WIRE 704 -80 688 -80
WIRE 944 -64 944 -96
WIRE 272 -48 272 -208
WIRE 304 -48 272 -48
WIRE 480 -32 480 -208
WIRE 480 -32 368 -32
WIRE 304 -16 96 -16
WIRE 944 16 944 0
WIRE 96 32 96 -16
WIRE 576 32 576 0
WIRE -48 144 -48 112
WIRE -48 144 -144 144
WIRE 96 144 96 112
WIRE 96 144 -48 144
WIRE 336 144 336 112
WIRE -144 176 -144 144
WIRE 576 176 576 144
WIRE -48 192 -48 144
WIRE 336 256 336 224
WIRE 336 256 272 256
WIRE 704 256 688 256
WIRE 832 272 768 272
WIRE 944 272 912 272
WIRE 336 288 336 256
WIRE 576 288 576 256
WIRE 704 288 576 288
WIRE 944 304 944 272
WIRE 576 320 576 288
WIRE 944 384 944 368
WIRE 336 400 336 368
WIRE 576 432 576 400
FLAG -144 176 0
FLAG -48 32 +12
FLAG -48 272 -12
FLAG 336 -64 +12
FLAG 336 0 -12
FLAG 96 -176 0
FLAG 96 -16 Bias
FLAG 336 112 Bias
FLAG 336 400 0
FLAG 272 256 Vtest
FLAG 736 -128 +12
FLAG 736 -64 -12
FLAG 576 -256 Bias
FLAG 576 32 0
FLAG 688 -80 Vtest
FLAG 944 16 0
FLAG 736 240 +12
FLAG 736 304 -12
FLAG 576 144 Bias
FLAG 576 432 0
FLAG 688 256 Vtest
FLAG 944 384 0
FLAG 656 -112 HiRef
FLAG 576 288 LoRef
SYMBOL voltage -48 16 R0
WINDOW 123 0 0 Left 0
WINDOW 39 0 0 Left 0
SYMATTR InstName V1
SYMATTR Value 12
SYMBOL voltage -48 176 R0
WINDOW 123 0 0 Left 0
WINDOW 39 0 0 Left 0
SYMATTR InstName V2
SYMATTR Value 12
SYMBOL OpAmps\\LT1354 336 -96 R0
SYMATTR InstName U2
SYMBOL LED 448 -224 R90
WINDOW 0 0 32 VBottom 2
WINDOW 3 72 32 VTop 2
SYMATTR InstName D1
SYMBOL res 240 -224 R90
WINDOW 0 0 56 VBottom 2
WINDOW 3 32 56 VTop 2
SYMATTR InstName R1
SYMATTR Value 20K
SYMBOL voltage 96 16 R0
WINDOW 123 0 0 Left 0
WINDOW 39 0 0 Left 0
SYMATTR InstName V3
SYMATTR Value 5
SYMBOL res 320 128 R0
SYMATTR InstName R2
SYMATTR Value 523
SYMBOL res 320 272 R0
SYMATTR InstName R3
SYMATTR Value 395
SYMBOL OpAmps\\LT1354 736 -160 R0
SYMATTR InstName U1
SYMBOL res 560 -240 R0
SYMATTR InstName R4
SYMATTR Value 523
SYMBOL res 560 -96 R0
SYMATTR InstName R5
SYMATTR Value 900
SYMBOL res 928 -112 R90
WINDOW 0 0 56 VBottom 2
WINDOW 3 32 56 VTop 2
SYMATTR InstName R6
SYMATTR Value 10K
SYMBOL LED 928 -64 R0
SYMATTR InstName D2
SYMBOL OpAmps\\LT1354 736 208 R0
SYMATTR InstName U3
SYMBOL res 560 160 R0
SYMATTR InstName R7
SYMATTR Value 523
SYMBOL res 560 304 R0
SYMATTR InstName R8
SYMATTR Value 400
SYMBOL res 928 256 R90
WINDOW 0 0 56 VBottom 2
WINDOW 3 32 56 VTop 2
SYMATTR InstName R9
SYMATTR Value 10K
SYMBOL LED 928 304 R0
SYMATTR InstName D3
SYMBOL LED 368 -224 R90
WINDOW 0 0 32 VBottom 2
WINDOW 3 72 32 VTop 2
SYMATTR InstName D4
TEXT 8 384 Left 2 !;.dc V3 0 10 .01
TEXT -164 380 Left 2 !;tran 0 1 0 .1
TEXT 24 328 Left 2 !.op
TEXT 1016 -32 Left 2 ;Too High
TEXT 1016 336 Left 2 ;Too Low
TEXT 256 328 Left 2 ;DUT
TEXT 392 -264 Left 2 ;DUT
TEXT 336 -264 VLeft 2 ;LED Good
