Version 4
SHEET 1 1956 680
WIRE 64 -496 16 -496
WIRE 192 -496 128 -496
WIRE 16 -432 16 -496
WIRE 48 -432 16 -432
WIRE 192 -432 192 -496
WIRE 192 -432 128 -432
WIRE 432 -416 400 -416
WIRE 560 -416 512 -416
WIRE 720 -416 560 -416
WIRE 752 -416 720 -416
WIRE 560 -336 560 -416
WIRE 592 -336 560 -336
WIRE -128 -320 -176 -320
WIRE 16 -320 16 -432
WIRE 16 -320 -48 -320
WIRE 48 -320 16 -320
WIRE 720 -320 720 -416
WIRE 720 -320 656 -320
WIRE 768 -320 720 -320
WIRE 880 -320 848 -320
WIRE 192 -304 192 -432
WIRE 192 -304 112 -304
WIRE 272 -304 192 -304
WIRE 400 -304 400 -416
WIRE 400 -304 336 -304
WIRE 448 -304 400 -304
WIRE 560 -304 512 -304
WIRE 592 -304 560 -304
WIRE 48 -288 16 -288
WIRE 560 -272 560 -304
WIRE 880 -256 880 -320
WIRE 1008 -256 880 -256
WIRE 1056 -256 1008 -256
WIRE 1184 -256 1136 -256
WIRE 16 -240 16 -288
WIRE 560 -160 560 -192
WIRE 1008 -160 1008 -256
WIRE 1056 -160 1008 -160
WIRE 1184 -144 1184 -256
WIRE 1184 -144 1120 -144
WIRE 1200 -144 1184 -144
WIRE 1056 -128 1008 -128
WIRE 448 -112 400 -112
WIRE 560 -112 512 -112
WIRE 720 -112 560 -112
WIRE 752 -112 720 -112
WIRE 240 -96 112 -96
WIRE 1008 -80 1008 -128
WIRE 560 -32 560 -112
WIRE 592 -32 560 -32
WIRE 112 -16 112 -96
WIRE 144 -16 112 -16
WIRE 720 -16 720 -112
WIRE 720 -16 656 -16
WIRE 768 -16 720 -16
WIRE 880 -16 880 -256
WIRE 880 -16 848 -16
WIRE 240 0 240 -96
WIRE 240 0 208 0
WIRE 272 0 240 0
WIRE 400 0 400 -112
WIRE 400 0 352 0
WIRE 448 0 400 0
WIRE 560 0 528 0
WIRE 592 0 560 0
WIRE -176 16 -176 -320
WIRE -80 16 -176 16
WIRE 80 16 0 16
WIRE 144 16 80 16
WIRE 80 48 80 16
WIRE 560 48 560 0
WIRE -176 112 -176 16
WIRE 80 144 80 112
WIRE 560 144 560 112
WIRE -288 224 -288 192
WIRE -288 224 -384 224
WIRE -176 224 -176 192
WIRE -176 224 -288 224
WIRE -384 256 -384 224
WIRE -288 272 -288 224
FLAG -384 256 0
FLAG -288 112 +12
FLAG -288 352 -12
FLAG 560 144 0
FLAG 624 -48 +12
FLAG 624 16 -12
FLAG 560 -160 0
FLAG 624 -352 +12
FLAG 624 -288 -12
FLAG 1008 -80 0
FLAG 1088 -176 +12
FLAG 1088 -112 -12
FLAG 80 -336 +12
FLAG 80 -272 -12
FLAG 16 -240 0
FLAG 752 -416 OSC
IOPIN 752 -416 Out
FLAG 752 -112 FILT
IOPIN 752 -112 Out
FLAG 1200 -144 OUT
IOPIN 1200 -144 Out
FLAG 176 -32 +12
FLAG 176 32 -12
FLAG 80 144 0
SYMBOL voltage -288 96 R0
WINDOW 123 0 0 Left 0
WINDOW 39 0 0 Left 0
SYMATTR InstName V1
SYMATTR Value 11.5
SYMBOL voltage -288 256 R0
WINDOW 123 0 0 Left 0
WINDOW 39 0 0 Left 0
SYMATTR InstName V2
SYMATTR Value 11.6
SYMBOL res 368 -16 R90
WINDOW 0 0 56 VBottom 2
WINDOW 3 32 56 VTop 2
SYMATTR InstName R1
SYMATTR Value 44.2K
SYMBOL voltage -176 96 R0
WINDOW 3 31 100 Left 2
WINDOW 123 39 56 Left 2
WINDOW 39 -64 145 Left 2
SYMATTR Value SINE(2.0 1.5 .1 0.00001 0.00001 .1 .3)
SYMATTR Value2 AC 1
SYMATTR SpiceLine Rser=0
SYMATTR InstName V3
SYMBOL cap 512 -128 R90
WINDOW 0 0 32 VBottom 2
WINDOW 3 32 32 VTop 2
SYMATTR InstName C1
SYMATTR Value 1nF
SYMBOL OpAmps\\LT1354 624 -80 R0
SYMATTR InstName U2
SYMBOL res 544 -16 R90
WINDOW 0 0 56 VBottom 2
WINDOW 3 32 56 VTop 2
SYMATTR InstName R3
SYMATTR Value 90.9K
SYMBOL cap 544 48 R0
SYMATTR InstName C2
SYMATTR Value 220pF
SYMBOL res 576 -176 R180
WINDOW 0 36 76 Left 2
WINDOW 3 36 40 Left 2
SYMATTR InstName R2
SYMATTR Value 46.4K
SYMBOL cap 336 -320 R90
WINDOW 0 0 32 VBottom 2
WINDOW 3 32 32 VTop 2
SYMATTR InstName C3
SYMATTR Value 1nF
SYMBOL OpAmps\\LT1354 624 -384 R0
SYMATTR InstName U1
SYMBOL res 528 -432 R90
WINDOW 0 0 56 VBottom 2
WINDOW 3 32 56 VTop 2
SYMATTR InstName R4
SYMATTR Value 8.25K
SYMBOL cap 512 -320 R90
WINDOW 0 0 32 VBottom 2
WINDOW 3 32 32 VTop 2
SYMATTR InstName C4
SYMATTR Value 1nF
SYMBOL OpAmps\\LT1354 1088 -208 R0
WINDOW 0 30 134 Left 2
SYMATTR InstName U3
SYMBOL res 864 -336 R90
WINDOW 0 0 56 VBottom 2
WINDOW 3 32 56 VTop 2
SYMATTR InstName R5
SYMATTR Value 4.12K
SYMBOL res 864 -32 R90
WINDOW 0 0 56 VBottom 2
WINDOW 3 32 56 VTop 2
SYMATTR InstName R6
SYMATTR Value 10K
SYMBOL res 1152 -272 R90
WINDOW 0 0 56 VBottom 2
WINDOW 3 -23 12 VTop 2
SYMATTR InstName R7
SYMATTR Value 10K
SYMBOL OpAmps\\LT1354 80 -368 R0
SYMATTR InstName U4
SYMBOL res -32 -336 R90
WINDOW 0 0 56 VBottom 2
WINDOW 3 32 56 VTop 2
SYMATTR InstName R8
SYMATTR Value 121K
SYMBOL res 144 -448 R90
WINDOW 0 0 56 VBottom 2
WINDOW 3 32 56 VTop 2
SYMATTR InstName R9
SYMATTR Value 53.2K
SYMBOL cap 128 -512 R90
WINDOW 0 -1 58 VBottom 2
WINDOW 3 -29 -15 VTop 2
SYMATTR InstName C5
SYMATTR Value 100pF
SYMBOL OpAmps\\LT1354 176 -64 R0
WINDOW 3 -26 158 Left 2
SYMATTR InstName U5
SYMBOL res 16 0 R90
WINDOW 0 0 56 VBottom 2
WINDOW 3 32 56 VTop 2
SYMATTR InstName R10
SYMATTR Value 30.1K
SYMBOL cap 64 48 R0
SYMATTR InstName C6
SYMATTR Value 1nF
TEXT -120 352 Left 2 !;tran 0 1 0 .1
TEXT -128 320 Left 2 !.ac oct 10 1000 50e4
TEXT 592 -232 Left 2 ;-3dB @9.2KHz
TEXT -24 -200 Left 2 ;OSC -7.14dB
TEXT 840 -344 Left 2 ;OSC +7.7dB
