Version 4
SHEET 1 1120 680
WIRE 320 -112 288 -112
WIRE 432 -112 400 -112
WIRE 528 -112 432 -112
WIRE 672 -112 608 -112
WIRE 288 -48 288 -112
WIRE 432 -32 432 -112
WIRE 464 -32 432 -32
WIRE 672 -16 672 -112
WIRE 672 -16 528 -16
WIRE 288 0 240 0
WIRE 320 0 288 0
WIRE 432 0 400 0
WIRE 464 0 432 0
WIRE 240 32 240 0
WIRE 432 32 432 0
WIRE 288 128 288 0
WIRE 368 128 288 128
WIRE 48 144 48 112
WIRE 48 144 -48 144
WIRE 240 144 240 112
WIRE 240 144 48 144
WIRE 432 144 432 112
WIRE 640 144 608 144
WIRE 752 144 720 144
WIRE 848 144 752 144
WIRE 992 144 928 144
WIRE -48 176 -48 144
WIRE 48 192 48 144
WIRE 240 192 240 144
WIRE 608 208 608 144
WIRE 752 224 752 144
WIRE 784 224 752 224
WIRE 992 240 992 144
WIRE 992 240 848 240
WIRE 368 256 368 128
WIRE 640 256 368 256
WIRE 752 256 720 256
WIRE 784 256 752 256
WIRE 752 288 752 256
WIRE 752 400 752 368
FLAG -48 176 0
FLAG 48 32 +12
FLAG 48 272 -12
FLAG 288 -48 0
FLAG 496 -48 +12
FLAG 496 16 -12
FLAG 240 272 -9V
FLAG 432 144 -9V
FLAG 608 208 0
FLAG 816 208 +12
FLAG 816 272 -12
FLAG 752 400 -9V
SYMBOL voltage 48 16 R0
WINDOW 123 0 0 Left 0
WINDOW 39 0 0 Left 0
SYMATTR InstName V1
SYMATTR Value 11.5
SYMBOL voltage 48 176 R0
WINDOW 123 0 0 Left 0
WINDOW 39 0 0 Left 0
SYMATTR InstName V2
SYMATTR Value 11.6
SYMBOL res 416 -128 R90
WINDOW 0 0 56 VBottom 2
WINDOW 3 32 56 VTop 2
SYMATTR InstName R1
SYMATTR Value 49.9K
SYMBOL res 624 -128 R90
WINDOW 0 0 56 VBottom 2
WINDOW 3 32 56 VTop 2
SYMATTR InstName R2
SYMATTR Value 1.12Meg
SYMBOL voltage 240 16 R0
WINDOW 3 -105 105 Invisible 2
WINDOW 123 0 0 Left 0
SYMATTR Value SINE(5 4 1 0.00001 0.00001)
SYMATTR SpiceLine Rser=0
SYMATTR InstName V3
SYMBOL res 416 -16 R90
WINDOW 0 0 56 VBottom 2
WINDOW 3 32 56 VTop 2
SYMATTR InstName R3
SYMATTR Value 499K
SYMBOL res 448 128 R180
WINDOW 0 -42 52 Left 2
WINDOW 3 -108 22 Left 2
SYMATTR InstName R4
SYMATTR Value 2.65Meg
SYMBOL OpAmps\\LT1354 496 -80 R0
SYMATTR InstName U2
SYMBOL voltage 240 176 R0
WINDOW 123 0 0 Left 0
WINDOW 39 0 0 Left 0
SYMATTR InstName V4
SYMATTR Value 9
SYMBOL res 736 128 R90
WINDOW 0 0 56 VBottom 2
WINDOW 3 32 56 VTop 2
SYMATTR InstName R5
SYMATTR Value 49.9K
SYMBOL res 944 128 R90
WINDOW 0 0 56 VBottom 2
WINDOW 3 32 56 VTop 2
SYMATTR InstName R6
SYMATTR Value 1.13Meg
SYMBOL res 736 240 R90
WINDOW 0 0 56 VBottom 2
WINDOW 3 32 56 VTop 2
SYMATTR InstName R7
SYMATTR Value 499K
SYMBOL res 768 384 R180
WINDOW 0 -42 52 Left 2
WINDOW 3 -108 22 Left 2
SYMATTR InstName R8
SYMATTR Value 2.61Meg
SYMBOL OpAmps\\LT1354 816 176 R0
SYMATTR InstName U1
TEXT -72 360 Left 2 !;tran 0 1 0 .1
TEXT 40 -72 Left 2 ;Input: 1.0V - 9.0V
TEXT 696 -24 Left 2 ;Output: -10V - 10.3V
TEXT 696 8 Left 2 ;Vo = Vp(1 + R2/R1)
TEXT 696 48 Left 2 ;Vp = [(Vi - -12V)/R3+R4]R4 + -12V
TEXT 152 360 Left 2 !.dc V3 0 3 .01
